Replication/results/database/4_BusVoltage_DG_in.csv
Bus,Phase,Voltage (kV),Voltage (pu),Angle (deg)
650,A,2.4220,1.0084,-30.25
650,B,2.4498,1.0200,-149.62
650,C,2.4155,1.0057,89.66
RG60,A,2.5734,1.0715,-30.25
RG60,B,2.5723,1.0710,-149.62
RG60,C,2.5815,1.0748,89.66
632,A,2.5176,1.0482,-30.64
632,B,2.5554,1.0640,-149.06
632,C,2.4886,1.0361,89.95
633,A,2.5108,1.0454,-30.64
633,B,2.5485,1.0611,-149.13
633,C,2.4845,1.0344,89.91
634,A,0.2833,1.0221,-31.28
634,B,0.2890,1.0430,-149.57
634,C,0.2816,1.0161,89.45
645,B,2.5371,1.0563,-149.19
645,C,2.4799,1.0325,90.03
646,B,2.5328,1.0546,-149.27
646,C,2.4749,1.0304,90.07
671,A,2.4820,1.0334,-31.07
671,B,2.5791,1.0738,-147.47
671,C,2.4244,1.0094,90.75
692,A,2.4820,1.0334,-31.07
692,B,2.5791,1.0738,-147.47
692,C,2.4244,1.0094,90.75
675,A,2.4669,1.0271,-31.41
675,B,2.5893,1.0781,-147.63
675,C,2.4191,1.0072,90.83
680,A,2.4820,1.0334,-31.07
680,B,2.5791,1.0738,-147.47
680,C,2.4244,1.0094,90.75
684,A,2.4774,1.0315,-31.10
684,C,2.4195,1.0074,90.64
652,A,2.4654,1.0265,-31.01
611,C,2.4150,1.0055,90.50
DL,A,2.4995,1.0407,-30.86
DL,B,2.5663,1.0685,-148.28
DL,C,2.4549,1.0221,90.31
DG,A,0.4104,1.0302,-172.43
DG,B,0.4139,1.0390,67.08
DG,C,0.4091,1.0269,-53.10
